scripts/data/matpower/ETO/eto_ponta_seco.m
%% MATPOWER Case Format : Version 2
function mpc = eto_ponta_seco
mpc.version = '2';

%%-----  Power Flow Data  -----%%
%% system MVA base
mpc.baseMVA = 100.0;
%% bus data
%    bus_i    type    Pd    Qd    Gs    Bs    area    Vm    Va    baseKV    zone    Vmax    Vmin
mpc.bus = [
	10	2	32.0	15.5	0.0	0.0	251	0.952	-0.9	992.0	1	1.05	0.95				
	11	2	0.0	0.0	0.0	0.0	251	1.0	6.25	992.0	1	1.05	0.95				
	12	2	0.0	0.0	0.0	0.0	204	1.0	22.7	992.0	1	1.05	0.95				
	13	2	0.0	0.0	0.0	0.0	204	1.006	17.9	990.0	1	1.05	0.95				
	14	2	0.0	0.0	0.0	0.0	255	1.026	-8.2	992.0	1	1.05	0.95				
	16	2	0.0	0.0	0.0	0.0	352	1.008	14.900000000000002	992.0	1	1.05	0.95				
	17	2	0.0	0.0	0.0	0.0	352	1.016	8.54	990.0	1	1.05	0.95				
	18	2	0.0	0.0	0.0	0.0	351	0.975	39.5	992.0	1	1.05	0.95				
	19	2	0.0	0.0	0.0	0.0	351	0.989	32.2	990.0	1	1.05	0.95				
	20	2	0.0	0.0	0.0	0.0	351	1.036	31.3	992.0	1	1.05	0.95				
	21	2	0.0	0.0	0.0	0.0	472	0.966	58.00000000000001	992.0	1	1.05	0.95				
	22	2	0.0	0.0	0.0	0.0	352	0.995	22.8	992.0	1	1.05	0.95				
	24	2	0.0	0.0	0.0	0.0	208	0.96	21.1	992.0	1	1.05	0.95				
	28	2	0.0	0.0	0.0	0.0	208	1.005	23.7	992.0	1	1.05	0.95				
	30	2	0.0	0.0	0.0	0.0	254	1.004	-8.8	992.0	1	1.05	0.95				
	31	2	0.0	0.0	0.0	0.0	254	0.961	-8.8	992.0	1	1.05	0.95				
	32	2	0.0	0.0	0.0	0.0	254	1.004	-8.8	992.0	1	1.05	0.95				
	35	2	0.0	0.0	0.0	0.0	512	0.958	38.8	992.0	1	1.05	0.95				
	36	2	0.0	0.0	0.0	0.0	511	1.02	43.3	992.0	1	1.05	0.95				
	37	2	0.0	0.0	0.0	0.0	511	0.964	39.2	990.0	1	1.05	0.95				
	38	2	0.0	0.0	0.0	0.0	251	0.988	-9.5	13.8	1	1.05	0.95				
	41	2	0.0	0.0	0.0	0.0	302	0.989	-18.0	990.0	1	1.05	0.95				
	42	1	0.0	0.0	0.0	-49.6	512	0.978	30.2	345.0	1	1.05	0.95				
	43	1	0.0	0.0	0.0	-49.6	512	0.978	30.2	345.0	1	1.05	0.95				
	44	2	0.0	0.0	0.0	0.0	251	0.988	-9.5	13.8	1	1.05	0.95				
	46	1	0.0	0.0	0.0	-49.8	252	1.006	-14.0	345.0	1	1.05	0.95				
	47	2	0.0	0.0	0.0	0.0	302	0.989	-18.0	990.0	1	1.05	0.95				
	48	2	0.0	0.0	0.0	0.0	204	0.97	-3.2	20.0	1	1.05	0.95				
	50	2	0.0	0.0	0.0	0.0	201	0.952	-7.499999999999999	20.0	1	1.05	0.95				
	52	1	0.0	0.0	0.0	0.0	252	1.018	-14.0	345.0	1	1.05	0.95				
	53	2	0.0	0.0	0.0	0.0	252	1.018	-14.0	20.0	1	1.05	0.95				
	54	2	0.0	0.0	0.0	0.0	252	1.018	-14.0	20.0	1	1.05	0.95				
	55	1	0.0	0.0	0.0	-4.4	513	0.999	26.5	230.0	1	1.05	0.95				
	56	1	0.0	0.0	0.0	0.0	201	1.014	4.19	69.0	1	1.05	0.95				
	57	1	0.0	0.0	0.0	-180.0	201	0.955	4.010000000000001	69.0	1	1.05	0.95				
	58	1	0.0	0.0	0.0	0.0	201	1.017	4.010000000000001	991.0	1	1.9	0.4				
	59	1	0.0	0.0	0.0	0.0	201	1.014	4.19	991.0	1	1.9	0.4				
	60	1	0.0	0.0	0.0	0.0	201	0.972	17.4	765.0	1	1.046	0.9				
	61	1	0.0	0.0	0.0	0.0	101	1.011	20.7	500.0	1	1.1	1.0				
	62	1	0.0	0.0	0.0	0.0	201	1.038	0.386	765.0	1	1.046	0.9				
	63	1	0.0	0.0	0.0	0.0	201	1.038	0.386	765.0	1	1.046	0.9				
	64	1	0.0	0.0	0.0	0.0	201	1.035	0.637	765.0	1	1.046	0.9				
	65	1	0.0	0.0	0.0	-330.0	201	1.021	6.59	765.0	1	1.046	0.9				
	66	1	0.0	0.0	0.0	0.0	101	1.03	4.56	525.0	1	1.048	0.95				
	67	1	0.24	0.0	0.0	-180.0	201	0.954	4.04	69.0	1	1.05	0.95				
	68	1	0.0	0.0	0.0	0.0	201	1.017	4.05	991.0	1	1.9	0.4				
	69	1	0.0	0.0	0.0	0.0	201	0.998	10.9	765.0	1	1.046	0.9				
	70	1	0.0	0.0	0.0	0.0	201	0.998	10.9	765.0	1	1.046	0.9				
	71	1	0.0	0.0	0.0	0.0	201	0.998	10.9	765.0	1	1.046	0.9				
	72	1	0.0	0.0	0.0	-330.0	201	1.035	2.4	765.0	1	1.046	0.9				
	73	1	0.0	0.0	0.0	0.0	201	1.001	7.46	765.0	1	1.046	0.9				
	74	1	0.0	0.0	0.0	0.0	201	1.002	7.46	765.0	1	1.046	0.9				
	75	1	0.0	0.0	0.0	0.0	201	0.999	7.23	765.0	1	1.046	0.9				
	76	1	0.0	0.0	0.0	0.0	201	0.989	-2.6	765.0	1	1.046	0.9				
	77	1	0.0	0.0	0.0	0.0	202	1.05	-2.3000000000000003	500.0	1	1.1	1.0				
	78	1	0.0	0.0	0.0	0.0	204	1.01	-7.0	345.0	1	1.05	0.95				
	79	1	0.0	0.0	0.0	0.0	201	1.001	-2.2	69.0	1	1.9	0.4				
	80	1	0.0	0.0	0.0	0.0	201	1.001	-2.2	991.0	1	1.9	0.4				
	81	1	0.0	0.0	0.0	0.0	201	0.973	-7.499999999999999	991.0	1	1.9	0.4				
	82	1	0.0	0.0	0.0	0.0	204	1.01	-6.9	345.0	1	1.05	0.95				
	84	1	0.0	0.0	0.0	0.0	255	1.006	-4.1	138.0	1	1.05	0.95				
	85	1	60.0	0.0	0.0	1540.0	241	1.033	-2.3000000000000003	500.0	1	1.1	1.0				
	86	1	0.0	0.0	0.0	2024.4	204	1.011	-3.2	345.0	1	1.05	0.95				
	87	1	0.0	0.0	0.0	0.0	251	1.053	-1.9	500.0	1	1.1	1.0				
	90	1	0.0	0.0	0.0	0.0	302	0.994	-16.0	345.0	1	1.05	0.95				
	91	1	0.0	0.0	0.0	0.0	302	0.984	-19.0	13.8	1	1.9	0.4				
	92	1	0.0	0.0	0.0	0.0	511	1.051	28.4	500.0	1	1.1	1.0				
	93	1	0.0	0.0	0.0	0.0	511	1.099	29.600000000000005	500.0	1	1.1	1.0				
	94	1	0.0	0.0	0.0	0.0	511	1.103	29.300000000000004	500.0	1	1.1	1.0				
	95	1	0.0	0.0	0.0	0.0	302	0.984	-19.0	13.8	1	1.9	0.4				
	96	1	0.0	0.0	0.0	0.0	302	0.984	-19.0	13.8	1	1.9	0.4				
	99	1	0.0	0.0	0.0	-90.7	202	1.071	10.4	500.0	1	1.1	1.0				
	100	1	0.0	0.0	0.0	-100.0	351	1.067	25.5	500.0	1	1.1	1.0				
	101	1	0.0	0.0	0.0	0.0	202	1.051	15.5	500.0	1	1.1	1.0				
	102	1	0.0	0.0	0.0	0.0	351	1.052	8.38	500.0	1	1.1	1.0				
	103	1	0.0	0.0	0.0	0.0	202	1.036	0.24300000000000002	500.0	1	1.1	1.0				
	104	1	0.0	0.0	0.0	-136.0	202	1.062	-1.3	500.0	1	1.1	1.0				
	105	1	0.0	0.0	0.0	0.0	251	1.057	-0.52	500.0	1	1.1	1.0				
	106	1	0.0	0.0	0.0	0.0	251	1.039	-3.6	500.0	1	1.1	1.0				
	107	1	0.0	0.0	0.0	0.0	251	1.035	-5.6	500.0	1	1.1	1.0				
	108	1	0.0	0.0	0.0	0.0	251	1.034	-5.0	500.0	1	1.1	1.0				
	109	1	0.0	0.0	0.0	0.0	251	1.039	-3.6	500.0	1	1.1	1.0				
	110	1	0.0	0.0	0.0	0.0	251	0.981	-9.5	991.0	1	1.9	0.4				
	112	1	0.0	0.0	0.0	0.0	101	1.033	-14.999999999999998	500.0	1	1.1	1.0				
	113	1	0.0	0.0	0.0	0.0	101	1.033	-14.999999999999998	500.0	1	1.1	1.0				
	114	1	0.0	0.0	0.0	0.0	101	1.033	-14.999999999999998	500.0	1	1.1	1.0				
	115	1	0.0	0.0	0.0	0.0	202	1.015	-28.0	500.0	1	1.1	1.0				
	116	1	0.0	0.0	0.0	0.0	256	1.02	-13.0	138.0	1	1.05	0.95				
	118	1	0.0	0.0	0.0	0.0	512	0.982	28.8	991.0	1	1.9	0.4				
	119	1	0.0	0.0	0.0	0.0	512	0.982	28.8	13.8	1	1.9	0.4				
	120	1	0.0	0.0	0.0	0.0	352	1.0	2.86	345.0	1	1.05	0.95				
	121	1	0.0	0.0	0.0	0.0	351	0.998	1.65	991.0	1	1.9	0.4				
	122	1	0.0	0.0	0.0	0.0	202	1.07	-5.9	500.0	1	1.1	1.0				
	123	1	0.0	0.0	0.0	100.0	204	0.997	-3.4	345.0	1	1.05	0.95				
	124	1	0.0	0.0	0.0	0.0	202	0.993	-4.2	991.0	1	1.9	0.4				
	125	1	0.0	0.0	0.0	0.0	202	1.049	3.21	500.0	1	1.1	1.0				
	126	1	0.0	0.0	0.0	100.0	204	1.005	-9.3	345.0	1	1.05	0.95				
	127	1	0.0	0.0	0.0	0.0	204	1.01	-7.8	345.0	1	1.05	0.95				
	128	1	0.0	0.0	0.0	0.0	204	1.01	-7.8	345.0	1	1.05	0.95				
	129	1	0.0	0.0	0.0	0.0	204	1.008	-8.3	345.0	1	1.05	0.95				
	130	1	0.0	0.0	0.0	0.0	202	1.049	3.21	500.0	1	1.1	1.0				
	131	1	0.0	0.0	0.0	0.0	352	0.998	16.8	345.0	1	1.05	0.95				
	133	1	0.0	0.0	0.0	0.0	252	0.992	-11.0	991.0	1	1.9	0.4				
	134	1	0.0	0.0	0.0	0.0	204	0.999	17.9	345.0	1	1.05	0.95				
	135	1	0.0	0.0	0.0	0.0	252	0.975	-10.0	991.0	1	1.9	0.4				
	136	1	0.0	0.0	0.0	0.0	352	1.011	8.54	345.0	1	1.05	0.95				
	137	1	0.0	0.0	0.0	0.0	252	0.975	-10.0	991.0	1	1.9	0.4				
	138	1	0.0	0.0	0.0	0.0	352	1.017	-3.4	345.0	1	1.05	0.95				
	139	1	0.0	0.0	0.0	0.0	251	0.983	-6.9	991.0	1	1.9	0.4				
	140	1	0.0	0.0	0.0	0.0	252	1.0	-7.300000000000001	345.0	1	1.05	0.95				
	141	1	0.0	0.0	0.0	0.0	251	0.981	-8.4	991.0	1	1.9	0.4				
	142	1	0.0	0.0	0.0	0.0	251	0.981	-8.2	991.0	1	1.9	0.4				
	143	1	0.0	0.0	0.0	0.0	252	0.992	-11.0	991.0	1	1.9	0.4				
	144	1	0.0	0.0	0.0	0.0	252	0.986	-8.4	345.0	1	1.05	0.95				
	145	1	0.0	0.0	0.0	0.0	252	0.992	-11.0	991.0	1	1.9	0.4				
	146	1	0.0	0.0	0.0	0.0	252	0.991	-11.0	991.0	1	1.9	0.4				
	147	1	27.0	5.5	0.0	60.0	252	1.016	-14.0	345.0	1	1.05	0.95				
	148	1	0.0	0.0	0.0	0.0	252	1.004	-17.0	991.0	1	1.9	0.4				
	149	1	0.0	0.0	0.0	-120.0	302	0.988	-18.0	345.0	1	1.05	0.95				
	150	1	0.0	0.0	0.0	0.0	302	0.978	-20.0	991.0	1	1.9	0.4				
	152	1	0.0	0.0	0.0	0.0	302	0.978	-20.0	991.0	1	1.9	0.4				
	153	1	0.0	0.0	0.0	0.0	302	0.978	-21.0	991.0	1	1.9	0.4				
	154	1	0.0	0.0	0.0	0.0	302	0.978	-20.0	13.8	1	1.9	0.4				
	155	1	0.0	0.0	0.0	0.0	302	0.978	-21.0	13.8	1	1.9	0.4				
	156	1	0.0	0.0	0.0	0.0	302	0.978	-20.0	13.8	1	1.9	0.4				
	158	1	0.0	0.0	0.0	0.0	302	0.978	-20.0	991.0	1	1.9	0.4				
	159	1	0.0	0.0	0.0	0.0	252	0.975	-10.0	13.8	1	1.9	0.4				
	160	1	0.0	0.0	0.0	0.0	252	0.975	-11.0	13.8	1	1.9	0.4				
	161	1	0.0	0.0	0.0	0.0	205	1.004	-8.6	230.0	1	1.05	0.95				
	162	1	0.0	0.0	0.0	0.0	207	0.979	-6.1	991.0	1	1.9	0.4				
	163	1	0.0	0.0	0.0	0.0	207	0.979	-6.1	13.8	1	1.9	0.4				
	164	1	0.0	0.0	0.0	0.0	352	1.006	0.744	991.0	1	1.9	0.4				
	165	1	0.0	0.0	0.0	-25.0	352	0.974	0.744	13.8	1	1.9	0.4				
	166	1	0.0	0.0	0.0	0.0	252	0.975	-11.0	991.0	1	1.9	0.4				
	167	1	0.0	0.0	0.0	0.0	252	0.975	-10.0	13.8	1	1.9	0.4				
	169	1	0.0	0.0	0.0	0.0	254	1.011	-11.0	138.0	1	1.05	0.95				
	170	1	0.0	0.0	0.0	0.0	359	1.018	1.0300000000000002	138.0	1	1.05	0.95				
	171	1	1.01	0.0	0.0	0.0	207	1.007	-6.4	138.0	1	1.05	0.95				
	172	1	0.0	0.0	0.0	0.0	256	0.996	-12.000000000000002	138.0	1	1.05	0.95				
	173	1	0.0	0.0	0.0	0.0	256	1.035	-11.0	138.0	1	1.05	0.95				
	174	1	0.0	0.0	0.0	150.0	258	1.009	-23.0	138.0	1	1.05	0.95				
	175	1	0.25	0.0	0.0	50.0	259	1.038	-17.0	138.0	1	1.05	0.95				
	176	1	0.0	0.0	0.0	0.0	202	0.992	-4.0	991.0	1	1.9	0.4				
	177	1	0.0	0.0	0.0	0.0	304	1.002	-20.0	138.0	1	1.05	0.95				
	178	1	0.0	0.0	0.0	0.0	254	1.004	-9.3	138.0	1	1.05	0.95				
	179	1	0.0	0.0	0.0	0.0	251	0.981	-9.5	991.0	1	1.9	0.4				
	180	1	0.0	0.0	0.0	100.0	254	1.002	-10.0	138.0	1	1.05	0.95				
	181	1	0.0	0.0	0.0	0.0	255	1.003	-7.0	138.0	1	1.05	0.95				
	182	1	0.0	0.0	0.0	0.0	255	1.016	-12.000000000000002	138.0	1	1.05	0.95				
	183	1	0.0	0.0	0.0	0.0	214	0.988	-3.4	138.0	1	1.05	0.95				
	184	1	0.0	0.0	0.0	0.0	254	1.004	-8.8	138.0	1	1.05	0.95				
	185	1	3.0	0.0	0.0	25.0	255	1.006	1.78	138.0	1	1.05	0.95				
	186	1	0.0	0.0	0.0	0.0	202	0.992	-4.0	13.8	1	1.9	0.4				
	187	1	0.0	0.0	0.0	0.0	358	1.03	15.300000000000002	138.0	1	1.05	0.95				
	189	1	0.0	0.0	0.0	0.0	563	1.004	24.5	991.0	1	1.9	0.4				
	190	1	0.0	0.0	0.0	0.0	208	1.015	18.7	138.0	1	1.05	0.95				
	192	1	0.0	0.0	0.0	0.0	252	1.004	-17.0	13.8	1	1.9	0.4				
	194	1	0.0	0.0	0.0	0.0	251	0.981	-8.2	13.8	1	1.9	0.4				
	195	1	0.0	0.0	0.0	0.0	251	0.981	-8.4	13.8	1	1.9	0.4				
	196	1	0.0	0.0	0.0	0.0	202	0.993	-4.2	13.8	1	1.9	0.4				
	197	1	0.0	0.0	0.0	0.0	251	0.983	-6.9	13.8	1	1.9	0.4				
	198	1	0.0	0.0	0.0	0.0	351	0.998	1.65	13.8	1	1.9	0.4				
	199	1	0.0	0.0	0.0	0.0	302	0.978	-20.0	13.8	1	1.9	0.4				
	200	1	0.0	0.0	0.0	0.0	259	1.002	-20.0	991.0	1	1.9	0.4				
	201	2	1.16	0.0	0.0	0.0	259	1.023	-21.0	992.0	1	1.05	0.95				
	202	1	0.0	0.0	0.0	0.0	259	1.002	-20.0	991.0	1	1.9	0.4				
	203	2	1.16	0.0	0.0	0.0	259	1.023	-21.0	992.0	1	1.05	0.95				
	204	1	0.0	0.0	0.0	0.0	252	0.992	-11.0	13.8	1	1.9	0.4				
	205	1	0.0	0.0	0.0	50.0	252	1.034	-11.0	13.8	1	1.9	0.4				
	206	1	0.0	0.0	0.0	50.0	252	1.035	-11.0	13.8	1	1.9	0.4				
	208	1	0.0	0.0	0.0	0.0	563	1.004	24.5	13.8	1	1.9	0.4				
	209	1	0.0	0.0	0.0	0.0	252	0.992	-11.0	13.8	1	1.9	0.4				
	210	1	0.0	0.0	0.0	-136.0	351	1.064	32.2	500.0	1	1.1	1.0				
	211	1	0.0	0.0	0.0	0.0	252	1.004	-17.0	991.0	1	1.9	0.4				
	212	1	0.0	0.0	0.0	0.0	252	1.004	-17.0	13.8	1	1.9	0.4				
	213	1	0.0	0.0	0.0	0.0	352	1.006	25.3	345.0	1	1.05	0.95				
	214	1	0.0	0.0	0.0	0.0	351	1.015	25.2	991.0	1	1.9	0.4				
	216	1	0.0	0.0	0.0	0.0	352	1.01	25.1	345.0	1	1.05	0.95				
	217	1	0.0	0.0	0.0	0.0	352	1.013	32.3	345.0	1	1.05	0.95				
	218	1	0.0	0.0	0.0	0.0	512	0.996	30.2	345.0	1	1.05	0.95				
	219	1	0.0	0.0	0.0	0.0	562	1.013	31.5	345.0	1	1.05	0.95				
	220	1	0.0	0.0	0.0	0.0	512	1.017	33.6	345.0	1	1.05	0.95				
	221	1	0.0	0.0	0.0	0.0	564	1.002	24.8	34.5	1	1.05	0.95				
	222	1	0.0	0.0	0.0	0.0	562	1.016	29.600000000000005	991.0	1	1.9	0.4				
	223	1	0.0	0.0	0.0	0.0	512	0.982	28.8	991.0	1	1.9	0.4				
	224	1	0.0	0.0	0.0	0.0	512	0.981	28.6	991.0	1	1.9	0.4				
	225	1	0.0	0.0	0.0	0.0	353	1.01	33.6	230.0	1	1.05	0.95				
	226	1	0.0	0.0	0.0	0.0	513	1.008	29.000000000000004	230.0	1	1.05	0.95				
	227	1	0.0	0.0	0.0	0.0	563	1.015	29.699999999999996	230.0	1	1.05	0.95				
	228	1	0.0	0.0	0.0	0.0	563	1.015	29.999999999999996	230.0	1	1.05	0.95				
	229	1	0.0	0.0	0.0	0.0	513	1.001	26.5	230.0	1	1.05	0.95				
	230	1	0.0	0.0	0.0	0.0	513	1.02	40.4	230.0	1	1.05	0.95				
	231	1	0.0	0.0	0.0	-45.0	513	1.013	37.0	230.0	1	1.05	0.95				
	232	1	0.0	0.0	0.0	0.0	562	1.016	29.600000000000005	13.8	1	1.9	0.4				
	233	1	0.0	0.0	0.0	-136.0	561	1.059	34.0	500.0	1	1.1	1.0				
	234	1	0.0	0.0	0.0	0.0	562	1.011	32.3	345.0	1	1.05	0.95				
	235	1	0.0	0.0	0.0	-209.50000000000003	511	1.06	39.2	500.0	1	1.1	1.0				
	236	1	0.8100000000000002	0.0	0.0	0.0	564	0.994	27.7	138.0	1	1.05	0.95				
	237	1	0.0	0.0	0.0	0.0	564	0.994	29.9	138.0	1	1.05	0.95				
	238	1	0.13	0.0	0.0	0.0	517	1.041	35.8	138.0	1	1.05	0.95				
...
];

%% generator data
%    bus    Pg    Qg    Qmax    Qmin    Vg    mBase    status    Pmax    Pmin    Pc1    Pc2    Qc1min    Qc1max    Qc2min    Qc2max    ramp_agc    ramp_10    ramp_30    ramp_q    apf
mpc.gen = [
	5031	0.0	0.0	0.0	0.0	0.97	100.0	1	99999.0	0.0															
	9682	120.0	0.0	0.0	0.0	1.035	100.0	0	99999.0	0.0															
	1863	20.0	-8.6	8.6	-8.6	1.001	100.0	1	20.0	0.0															
	2631	5.9	0.0	0.0	0.0	1.0	100.0	0	99999.0	0.0															
	7064	1720.0	521.9	861.5999999999999	-861.9999999999999	1.04	100.0	1	1729.0	0.0															
	3153	17.5	0.0	0.0	0.0	1.011	100.0	0	99999.0	0.0															
	17	0.0	0.0	0.0	0.0	1.016	100.0	1	99999.0	0.0															
	6057	17.6	-16.1	37.2	-37.2	0.989	100.0	1	17.6	0.0															
	4335	4.1	0.0	0.0	0.0	1.002	100.0	0	99999.0	0.0															
	5805	16.8	-8.85	14.400000000000002	-14.400000000000002	0.984	100.0	1	16.8	0.0															
	6423	0.0	0.0	0.0	0.0	0.97	100.0	1	99999.0	0.0															
	14	120.0	21.26	100.0	-100.0	1.026	100.0	1	222.00000000000003	0.0															
	4141	30.0	0.0	0.0	0.0	1.023	100.0	0	99999.0	0.0															
	510	616.0	-131.0	270.0	-270.0	0.98	100.0	1	1430.0	0.0															
	2166	0.2	0.0	0.0	0.0	0.98	100.0	0	99999.0	0.0															
	3963	136.0	-41.4	180.0	-110.00000000000001	1.002	100.0	1	291.0	0.0															
	21	86.0	-13.100000000000001	42.0	-40.0	0.966	100.0	1	162.0	0.0															
	871	4.0	0.0	0.0	0.0	0.994	100.0	0	99999.0	0.0															
	6016	5.7	2.139	7.6	-7.6	1.002	100.0	1	5.7	0.0															
	6598	12.7	0.0	0.0	0.0	0.992	100.0	0	99999.0	0.0															
	2276	10.2	0.0	0.0	0.0	0.974	100.0	0	99999.0	0.0															
	8746	6.7	-2.16	9.0	-9.0	0.989	100.0	1	6.7	0.0															
	751	76.0	-15.7	50.0	-50.0	0.955	100.0	1	108.0	0.0															
	1070	300.0	19.25	140.6	-140.0	0.993	100.0	1	427.59999999999997	0.0															
	3749	21.0	0.0	0.0	0.0	0.997	100.0	0	99999.0	0.0															
	8129	4.9	-4.88	14.3	-12.5	0.991	100.0	1	4.9	0.0															
	7199	10.4	2.283	12.3	-12.3	1.0	100.0	1	10.4	0.0															
	1166	19.0	-4.42	21.0	-15.0	1.0	100.0	1	86.0	0.0															
	2863	34.0	21.22	44.15	-44.1	1.036	100.0	1	190.0	0.0															
	6343	19.5	0.0	0.0	0.0	0.972	100.0	0	99999.0	0.0															
	9126	30.0	0.0	0.0	0.0	1.032	100.0	1	99999.0	0.0															
	5051	564.0	-125.0	375.0	-360.0	1.004	100.0	1	690.0	0.0															
	6164	28.499999999999996	-15.2	49.2	-49.2	0.977	100.0	1	28.499999999999996	0.0															
	3744	16.0	-10.3	10.32	-10.3	0.963	100.0	1	32.01	0.0															
	6129	11.4	-7.290000000000001	19.6	-19.6	0.988	100.0	1	11.4	0.0															
	1704	4.7	0.0	0.0	0.0	1.006	100.0	0	99999.0	0.0															
	9598	3.3000000000000003	0.0	0.0	0.0	1.012	100.0	0	99999.0	0.0															
	6133	22.21	0.0	0.0	0.0	0.983	100.0	0	99999.0	0.0															
	10232	4.0	0.0	0.0	0.0	1.027	100.0	0	99999.0	0.0															
	1023	0.3	0.0	0.0	0.0	0.981	100.0	0	99999.0	0.0															
	3969	80.0	0.0	0.0	0.0	1.015	100.0	0	99999.0	0.0															
	7916	16.7	-2.27	8.8	-15.299999999999999	0.985	100.0	1	16.7	0.0															
	1566	14.000000000000002	0.0	0.0	0.0	1.031	100.0	0	99999.0	0.0															
	315	0.0	-15.0	30.0	-15.0	1.001	100.0	1	99999.0	0.0															
	841	0.4	0.0	0.0	0.0	0.995	100.0	0	99999.0	0.0															
	4802	13.200000000000001	-4.86	9.396	-6.38	1.007	100.0	1	13.200000000000001	0.0															
	984	6.0	0.0706	4.0	-5.0	1.025	100.0	1	11.4	0.0															
	9451	0.0	0.0	0.0	0.0	0.995	100.0	1	99999.0	0.0															
	9769	45.0	0.0	0.0	0.0	0.974	100.0	0	99999.0	0.0															
	3104	1.8000000000000003	0.0	0.0	0.0	0.965	100.0	0	99999.0	0.0															
	7246	41.39	-4.81	0.0	0.0	0.984	100.0	0	99999.0	0.0															
	1176	32.0	1.741	26.0	-33.0	1.01	100.0	1	62.5	0.0															
	8727	31.5	-6.909999999999999	48.0	-48.0	1.039	100.0	1	31.5	0.0															
	8911	0.0	0.0	0.0	0.0	1.019	100.0	1	99999.0	0.0															
	6589	37.6	0.0	0.0	0.0	1.003	100.0	0	99999.0	0.0															
	10144	31.0	0.0	0.0	0.0	1.027	100.0	0	99999.0	0.0															
	2733	6.7	0.0	0.0	0.0	1.021	100.0	0	99999.0	0.0															
	9067	0.6	0.0	0.0	0.0	0.99	100.0	0	99999.0	0.0															
	9734	7.5	-4.8	0.0	0.0	1.027	100.0	0	99999.0	0.0															
	2918	11.9	0.0	0.0	0.0	1.008	100.0	1	99999.0	0.0															
	4168	58.8	0.0	0.0	0.0	1.011	100.0	0	99999.0	0.0															
	2917	5.0	0.0	0.0	0.0	1.016	100.0	1	99999.0	0.0															
	4010	0.9000000000000001	0.0	0.0	0.0	0.992	100.0	0	99999.0	0.0															
	44322	0.0	0.0	0.0	0.0	0.954	100.0	1	99999.0	0.0															
	1774	1.9	0.0	0.0	0.0	0.983	100.0	0	99999.0	0.0															
	6073	44.5	1.467	122.09999999999998	-122.0	0.975	100.0	1	44.5	0.0															
	1189	0.5	0.0	0.0	0.0	1.033	100.0	0	99999.0	0.0															
	7206	748.0	-285.0	285.0	-285.0	0.964	100.0	1	900.0	0.0															
	9768	50.0	0.0	0.0	0.0	1.005	100.0	0	99999.0	0.0															
	6742	11.4	-7.449999999999999	19.6	-19.6	0.989	100.0	1	11.4	0.0															
	44323	0.0	0.0	0.0	0.0	0.954	100.0	1	99999.0	0.0															
	1501	59.0	15.22	44.0	-44.0	0.989	100.0	1	88.0	0.0															
	4834	29.100000000000005	0.0	0.0	0.0	0.993	100.0	1	99999.0	0.0															
	1594	47.0	3.132	18.6	-20.0	0.986	100.0	1	117.8	0.0															
	2601	13.100000000000001	6.924999999999999	7.6	-7.6	0.987	100.0	1	15.8	0.0															
	4061	24.1	0.0	0.0	0.0	0.999	100.0	0	99999.0	0.0															
	6074	21.5	1.928	17.5	-25.1	0.994	100.0	1	21.5	0.0															
	4157	28.6	0.0	0.0	0.0	1.025	100.0	0	99999.0	0.0															
	7509	5.6	0.208	3.1	-2.1	1.018	100.0	1	5.6	0.0															
	922	0.0	0.0	0.0	0.0	1.01	100.0	1	99999.0	0.0															
	8607	13.5	1.136	13.0	-13.0	1.0	100.0	1	13.5	0.0															
	9784	22.0	-5.87	13.5	-9.2	0.998	100.0	1	22.0	0.0															
	8015	5.4	-2.06	13.100000000000001	-13.100000000000001	0.993	100.0	1	5.4	0.0															
	10119	30.0	-23.9	48.0	-48.0	0.994	100.0	1	30.0	0.0															
	8724	29.5	-9.53	12.0	-12.0	1.048	100.0	1	29.5	0.0															
	8071	19.2	-2.22	3.1	-3.1	1.003	100.0	1	19.2	0.0															
	6492	15.5	0.0	0.0	0.0	1.033	100.0	0	99999.0	0.0															
	3525	0.0	0.0	0.0	0.0	1.002	100.0	1	99999.0	0.0															
	8612	30.0	16.79	26.700000000000003	-19.3	1.01	100.0	1	32.82	0.0															
	6027	0.0	0.0	0.0	0.0	0.992	100.0	1	99999.0	0.0															
	3803	8.0	0.0	0.0	0.0	1.003	100.0	0	99999.0	0.0															
	5744	15.2	-11.8	22.1	-22.1	0.973	100.0	1	15.2	0.0															
	3465	12.4	0.0	0.0	0.0	0.99	100.0	0	99999.0	0.0															
	9582	130.0	0.0	0.0	0.0	0.935	100.0	0	99999.0	0.0															
	4525	38.0	-2.73	23.8	-37.0	0.978	100.0	1	95.2	0.0															
	6711	11.0	-6.45	13.200000000000001	-13.200000000000001	0.989	100.0	1	11.0	0.0															
	6372	29.100000000000005	0.8095999999999999	9.6	-9.6	0.99	100.0	1	29.100000000000005	0.0															
	4073	1.3	0.0	0.0	0.0	1.017	100.0	0	99999.0	0.0															
	9328	3.1	0.0	0.0	0.0	1.0	100.0	0	99999.0	0.0															
	3524	0.0	0.0	0.0	0.0	1.002	100.0	1	99999.0	0.0															
	8686	8.7	-5.11	5.5	-5.5	0.987	100.0	1	8.7	0.0															
	1014	0.1	0.0	0.0	0.0	0.965	100.0	0	99999.0	0.0															
	4692	1.7000000000000002	0.0	0.0	0.0	1.018	100.0	1	99999.0	0.0															
	4520	53.0	-15.2	20.0	-19.3	0.981	100.0	1	117.40000000000002	0.0															
	5078	19.9	-5.28	7.6	-7.6	0.996	100.0	1	19.9	0.0															
	9625	27.699999999999996	0.0	0.0	0.0	0.991	100.0	0	99999.0	0.0															
	1528	10.9	0.0	0.0	0.0	0.998	100.0	0	99999.0	0.0															
	2107	1.6	0.0	0.0	0.0	1.003	100.0	0	99999.0	0.0															
	6347	0.0	4.177	30.0	-15.0	0.992	100.0	1	99999.0	0.0															
	8651	10.9	-6.9	7.3	-6.9	1.012	100.0	1	10.9	0.0															
	2716	7.400000000000001	0.0	0.0	0.0	1.025	100.0	0	99999.0	0.0															
	2851	2.0	0.0	0.0	0.0	0.992	100.0	0	99999.0	0.0															
	4631	23.0	0.0	0.0	0.0	1.042	100.0	1	99999.0	0.0															
	526	34.0	-2.87	26.0	-26.0	0.998	100.0	1	86.0	0.0															
	3839	36.0	0.0	0.0	0.0	1.023	100.0	0	99999.0	0.0															
	5218	0.0	0.0	0.0	0.0	0.964	100.0	1	99999.0	0.0															
	1707	0.2	0.0	0.0	0.0	0.984	100.0	0	99999.0	0.0															
	516	56.00000000000001	28.000000000000004	28.000000000000004	-28.000000000000004	1.02	100.0	1	140.8	0.0															
	6597	16.2	0.0	0.0	0.0	0.994	100.0	0	99999.0	0.0															
	9558	2.2	0.3	0.0	0.0	1.0	100.0	0	99999.0	0.0															
	9455	28.000000000000004	0.0	0.0	0.0	1.016	100.0	1	99999.0	0.0															
	9732	7.5	-4.8	0.0	0.0	1.028	100.0	0	99999.0	0.0															
	5653	16.85	0.0	0.0	0.0	0.987	100.0	0	99999.0	0.0															
	3455	0.8	0.1	0.0	0.0	1.016	100.0	0	99999.0	0.0															
	3547	25.0	0.0	0.0	0.0	1.035	100.0	1	99999.0	0.0															
	5032	0.0	0.0	0.0	0.0	0.972	100.0	1	99999.0	0.0															
	10157	15.0	-4.85	9.0	-9.0	0.992	100.0	1	15.0	0.0															
	4827	3.2	0.0	0.0	0.0	0.995	100.0	0	99999.0	0.0															
	4489	665.0	50.05	338.8	-272.0	1.0	100.0	1	665.0	0.0															
	32	0.0	0.0	0.0	0.0	1.004	100.0	1	99999.0	0.0															
	8309	11.4	-6.509999999999999	19.9	-19.9	0.98	100.0	1	11.4	0.0															
	8485	6.2	-2.55	11.9	-11.9	0.993	100.0	1	6.2	0.0															
	340	0.6	0.0	0.0	0.0	1.006	100.0	0	99999.0	0.0															
	6618	7.8	-8.07	10.4	-10.4	0.991	100.0	1	7.8	0.0															
	7340	0.6	0.0	0.0	0.0	1.006	100.0	0	99999.0	0.0															
	2335	2.4	0.0	0.0	0.0	0.997	100.0	0	99999.0	0.0															
	3783	11.2	0.0	0.0	0.0	1.02	100.0	0	99999.0	0.0															
	836	14.2	0.0	0.0	0.0	0.988	100.0	0	99999.0	0.0															
	4878	3.0	0.0	0.0	0.0	0.994	100.0	0	99999.0	0.0															
	9923	2.9	0.0	0.0	0.0	0.975	100.0	0	99999.0	0.0															
	6593	20.0	0.0	0.0	0.0	1.002	100.0	0	99999.0	0.0															
	37	0.0	0.0	0.0	0.0	0.964	100.0	1	99999.0	0.0															
	4403	8.6	0.0	0.0	0.0	1.032	100.0	1	99999.0	0.0															
	2031	18.0	4.081	14.400000000000002	-15.6	1.05	100.0	1	44.4	0.0															
	3785	20.0	0.0	0.0	0.0	1.023	100.0	0	99999.0	0.0															
	2449	36.5	0.0	0.0	0.0	0.987	100.0	0	99999.0	0.0															
	7072	21.0	0.0	0.0	0.0	1.059	100.0	0	99999.0	0.0															
	10012	36.0	-6.6000000000000005	0.0	0.0	1.009	100.0	0	99999.0	0.0															
	5012	0.0	0.0	0.0	0.0	1.017	100.0	1	99999.0	0.0															
	2254	2.7	0.0	0.0	0.0	0.979	100.0	0	99999.0	0.0															
	4190	55.00000000000001	0.0	0.0	0.0	1.032	100.0	0	99999.0	0.0															
	10314	6.800000000000001	0.0	0.0	0.0	1.001	100.0	0	99999.0	0.0															
	4911	6.5	0.0	0.0	0.0	1.025	100.0	1	99999.0	0.0															
	513	210.0	-91.5	144.0	-144.0	0.992	100.0	1	525.0	0.0															
	1851	1.2	0.0	0.0	0.0	1.001	100.0	0	99999.0	0.0															
	2818	11.1	0.0	0.0	0.0	1.019	100.0	0	99999.0	0.0															
	2622	2.7	0.0	0.0	0.0	0.999	100.0	0	99999.0	0.0															
	9100	66.0	50.12	120.0	-120.0	1.009	100.0	1	160.0	0.0															
	4788	4.0	0.1102	2.42	-1.6	0.994	100.0	1	4.0	0.0															
	806	35.0	8.537	28.999999999999996	-28.999999999999996	0.989	100.0	1	122.0	0.0															
	2977	12.6	0.0	0.0	0.0	1.018	100.0	0	99999.0	0.0															
	4698	3.5000000000000004	0.0	0.0	0.0	0.986	100.0	1	99999.0	0.0															
	1155	83.0	2.914	61.0	-60.0	1.01	100.0	1	250.0	0.0															
	44075	0.0	-45.7	100.0	-70.0	0.95	100.0	1	99999.0	0.0															
	3563	9.9	0.0	0.0	0.0	1.025	100.0	1	99999.0	0.0															
	9948	2.5	-2.0	0.0	0.0	1.045	100.0	0	99999.0	0.0															
	921	150.0	10.0	62.0	-45.0	1.01	100.0	1	355.0	0.0															
	6812	26.200000000000003	1.1	0.0	0.0	1.093	100.0	0	99999.0	0.0															
	2350	18.0	0.0	0.0	0.0	0.961	100.0	0	99999.0	0.0															
	5771	0.0	0.0	0.0	0.0	0.994	100.0	1	99999.0	0.0															
	304	156.0	-45.0	45.0	-45.0	0.969	100.0	1	390.0	0.0															
	6688	5.1	-1.5700000000000003	9.0	-9.0	0.995	100.0	1	5.1	0.0															
	6422	1147.0	-2.22	420.0	-420.0	0.954	100.0	1	1400.0	0.0															
	6550	13.600000000000001	-9.17	17.9	-17.9	0.99	100.0	1	13.600000000000001	0.0															
	809	0.0	0.0	0.0	0.0	1.0	100.0	1	99999.0	0.0															
	8904	61.1	22.89	96.0	-60.0	0.975	100.0	1	108.0	0.0															
	1125	9.5	0.0	0.0	0.0	1.019	100.0	0	99999.0	0.0															
	2803	2.7	0.0	0.0	0.0	1.025	100.0	0	99999.0	0.0															
	1284	1.8000000000000003	0.0	0.0	0.0	1.001	100.0	0	99999.0	0.0															
	505	71.0	-8.82	36.0	-36.0	0.973	100.0	1	177.0	0.0															
	4222	3.3000000000000003	0.0	0.0	0.0	1.003	100.0	0	99999.0	0.0															
	5463	6.09	0.0	0.0	0.0	1.022	100.0	0	99999.0	0.0															
	4691	1.1	0.0	0.0	0.0	1.018	100.0	1	99999.0	0.0															
	8080	9.6	-4.54	14.6	-14.6	0.985	100.0	1	9.6	0.0															
	4513	2.3	0.0	0.0	0.0	0.929	100.0	0	99999.0	0.0															
	6424	1253.0	83.83	472.0	-472.0	0.944	100.0	1	1253.0	0.0															
	4710	0.8	0.0	0.0	0.0	0.993	100.0	0	99999.0	0.0															
	5957	109.7	-76.6	76.6	-76.6	0.982	100.0	1	109.7	0.0															
	6042	5.1	-4.36	12.1	-15.4	0.992	100.0	1	5.1	0.0															
	5764	0.0	0.0	0.0	0.0	0.992	100.0	1	99999.0	0.0															
	7619	14.2	0.0	0.0	0.0	1.018	100.0	0	99999.0	0.0															
	6136	2.2	-1.7000000000000002	5.8	-5.8	0.99	100.0	1	2.2	0.0															
	2754	14.800000000000002	0.0	0.0	0.0	0.995	100.0	0	99999.0	0.0															
	1750	1.1	0.0	0.0	0.0	1.007	100.0	0	99999.0	0.0															
	503	88.0	-18.8	48.0	-48.0	0.954	100.0	1	221.59999999999997	0.0															
	2870	21.4	0.0	0.0	0.0	1.013	100.0	0	99999.0	0.0															
	3154	25.0	-3.4000000000000004	0.0	0.0	0.988	100.0	0	99999.0	0.0															
	5243	0.0	0.0	40.0	0.0	0.995	100.0	1	99999.0	0.0															
	5315	33.4	-17.7	17.7	-17.7	0.979	100.0	1	33.4	0.0															
	6232	26.1	-7.66	18.7	-26.8	0.983	100.0	1	26.1	0.0															
...
];

%% branch data
%    f_bus    t_bus    r    x    b    rateA    rateB    rateC    ratio    angle    status    angmin    angmax
mpc.branch = [
	3207	285	2.3999999999999997e-5	9.8e-5	2.6e-5	153.0	194.0	153.0	0	0	1	-59.99999999999999	59.99999999999999								
	9556	9231	5.0e-5	0.00017	2.9999999999999997e-6	54.0	79.0	79.0	0	0	1	-59.99999999999999	59.99999999999999								
	283	1657	0.000378	0.002154	0.00061	194.0	247.00000000000003	194.0	0	0	1	-59.99999999999999	59.99999999999999								
	149	90	0.00074	0.00812	0.13644	747.0	747.0	747.0	0	0	1	-59.99999999999999	59.99999999999999								
	6820	6800	0.012669999999999999	0.09112999999999999	0.26076	476.99999999999994	476.99999999999994	476.99999999999994	0	0	1	-59.99999999999999	59.99999999999999								
	781	3772	0.0298	0.0866	0.02319	103.0	120.0	103.0	0	0	1	-59.99999999999999	59.99999999999999								
	1035	10200	0.011200000000000002	0.039599999999999996	0.0106	166.0	166.0	215.0	0	0	1	-59.99999999999999	59.99999999999999								
	1303	1332	0.0195	0.0594	1.0e-5	48.0	71.0	71.0	0	0	1	-59.99999999999999	59.99999999999999								
	2063	2058	0.0252	0.0736	0.0012	14.000000000000002	14.000000000000002	14.000000000000002	0	0	1	-59.99999999999999	59.99999999999999								
	8199	5905	0.0555	0.08789999999999999	0.0	0.0	0.0	0.0	0	0	1	-59.99999999999999	59.99999999999999								
	9445	1551	0.0753	0.1954	0.0479	0.0	0.0	0.0	0	0	1	-59.99999999999999	59.99999999999999								
	260	1654	0.016362	0.066474	0.01782	153.0	194.0	153.0	0	0	1	-59.99999999999999	59.99999999999999								
	1903	4302	0.004462	0.01048	0.0028000000000000004	139.0	163.0	139.0	0	0	1	-59.99999999999999	59.99999999999999								
	6173	8075	0.045159000000000005	0.18395	0.003627	0.0	0.0	0.0	0	0	1	-59.99999999999999	59.99999999999999								
	104	3010	0.00189	0.03162	2.297300000000001	2442.0	3464.0	2442.0	0	0	0	-59.99999999999999	59.99999999999999								
	1872	1142	0.006999999999999999	0.0248	0.00662	146.0	186.0	186.0	0	0	1	-59.99999999999999	59.99999999999999								
	673	22630	0.042817999999999995	0.10052	0.026699999999999998	139.0	163.0	139.0	0	0	1	-59.99999999999999	59.99999999999999								
	6407	6409	0.0054	0.029300000000000003	0.0547	0.0	0.0	0.0	0	0	1	-59.99999999999999	59.99999999999999								
	9866	9867	0.10234	0.474	0.002502	0.0	0.0	0.0	0	0	1	-59.99999999999999	59.99999999999999								
	5446	5641	0.0040999999999999995	0.0196	0.0652	363.0	457.0	457.0	0	0	1	-59.99999999999999	59.99999999999999								
	2317	2327	0.3184	0.4806	0.006500000000000001	34.0	38.0	34.0	0	0	1	-59.99999999999999	59.99999999999999								
	184	180	0.01572	0.09103	0.0262	194.0	206.99999999999997	206.99999999999997	0	0	1	-59.99999999999999	59.99999999999999								
	4245	2145	0.00178	0.009519999999999999	0.00293	188.0	191.0	188.0	0	0	1	-59.99999999999999	59.99999999999999								
	254	9616	0.007272	0.029544	0.00792	153.0	194.0	153.0	0	0	1	-59.99999999999999	59.99999999999999								
	4264	2138	0.16760000000000003	0.25239999999999996	0.0034799999999999996	34.0	48.0	34.0	0	0	1	-59.99999999999999	59.99999999999999								
	185	1771	0.013999999999999999	0.0824	0.02365	118.0	133.0	118.0	0	0	1	-59.99999999999999	59.99999999999999								
	410	431	0.00184	0.010726	0.036000000000000004	324.0	445.0	445.0	0	0	1	-59.99999999999999	59.99999999999999								
	8606	8607	0.017143	0.14177	0.000963	0.0	0.0	0.0	0	0	1	-59.99999999999999	59.99999999999999								
	283	1656	0.000378	0.002154	0.00061	194.0	247.00000000000003	194.0	0	0	1	-59.99999999999999	59.99999999999999								
	3209	3958	0.001062	0.007852	0.002376	239.0	301.0	239.0	0	0	0	-59.99999999999999	59.99999999999999								
	2690	2689	0.1632	0.43079999999999996	0.00757	66.0	66.0	66.0	0	0	1	-59.99999999999999	59.99999999999999								
	1578	1584	0.07440000000000001	0.1277	0.014499999999999999	52.0	52.0	52.0	0	0	1	-59.99999999999999	59.99999999999999								
	2388	2401	0.0381	0.1106	0.001898	60.0	75.0	75.0	0	0	1	-59.99999999999999	59.99999999999999								
	11931	3802	5.0e-5	0.000129	3.2e-5	95.0	139.0	95.0	0	0	1	-59.99999999999999	59.99999999999999								
	869	2493	0.0008	0.0043	0.0017150000000000002	124.0	229.99999999999997	229.99999999999997	0	0	1	-59.99999999999999	59.99999999999999								
	10243	1337	0.0	1.0e-5	0.0	0.0	0.0	0.0	0	0	1	-59.99999999999999	59.99999999999999								
	4350	4332	0.0017100000000000001	0.024300000000000002	2.4670000000000005	2555.0	3464.0	3464.0	0	0	1	-59.99999999999999	59.99999999999999								
	4723	4793	0.0063	0.02434	0.006750000000000001	136.0	169.0	100.0	0	0	1	-59.99999999999999	59.99999999999999								
	624	3942	0.020099999999999996	0.053099999999999994	0.013500000000000002	139.0	163.0	139.0	0	0	1	-59.99999999999999	59.99999999999999								
	6540	6618	0.020423	0.16440000000000002	0.000991	0.0	0.0	0.0	0	0	1	-59.99999999999999	59.99999999999999								
	1248	1258	0.0011	0.0063	0.014419999999999999	290.0	366.0	366.0	0	0	1	-59.99999999999999	59.99999999999999								
	5602	7239	0.0079	0.022400000000000003	0.0059	124.0	154.0	154.0	0	0	1	-59.99999999999999	59.99999999999999								
	1129	1134	0.0172	0.045599999999999995	0.010820000000000001	97.0	124.0	124.0	0	0	1	-59.99999999999999	59.99999999999999								
	781	3782	0.02749	0.0924	0.024990000000000002	120.0	140.0	120.0	0	0	1	-59.99999999999999	59.99999999999999								
	11708	11710	0.005410000000000001	0.014202999999999999	0.0036	108.0	130.0	108.0	0	0	1	-59.99999999999999	59.99999999999999								
	2673	2929	0.2009	0.2809	0.00451	40.0	40.0	40.0	0	0	1	-59.99999999999999	59.99999999999999								
	681	22950	0.010041	0.025939999999999998	0.0069	80.0	108.0	80.0	0	0	1	-59.99999999999999	59.99999999999999								
	2392	2430	0.030699999999999998	0.1013	0.002196	56.99999999999999	87.0	87.0	0	0	1	-59.99999999999999	59.99999999999999								
	2125	22650	0.0014000000000000002	0.0034999999999999996	0.0009	191.0	191.0	191.0	0	0	0	-59.99999999999999	59.99999999999999								
	807	837	0.057300000000000004	0.16670000000000001	0.045589000000000005	131.0	176.0	176.0	0	0	1	-59.99999999999999	59.99999999999999								
	12010	3107	0.011746000000000001	0.030830000000000003	0.008199999999999999	120.0	140.0	120.0	0	0	1	-59.99999999999999	59.99999999999999								
	7327	7328	0.0013	0.003	0.0007000000000000001	125.0	125.0	125.0	0	0	1	-59.99999999999999	59.99999999999999								
	827	884	0.0159	0.0809	0.1414	286.0	286.0	320.0	0	0	1	-59.99999999999999	59.99999999999999								
	11937	3842	0.0109	0.0286	0.0074	95.0	139.0	84.0	0	0	0	-59.99999999999999	59.99999999999999								
	815	821	0.0012	0.006999999999999999	0.013999999999999999	386.0	432.0	432.0	0	0	1	-59.99999999999999	59.99999999999999								
	12045	3148	0.008100000000000001	0.0163	0.0008	48.0	48.0	48.0	0	0	1	-59.99999999999999	59.99999999999999								
	572	559	0.002197	0.026211	1.6968	1524.0	1524.0	1524.0	0	0	1	-59.99999999999999	59.99999999999999								
	9444	9456	0.00151	0.00978	0.0173	140.0	216.0	0.0	0	0	1	-59.99999999999999	59.99999999999999								
	11971	681	0.010253000000000002	0.045801999999999995	0.0134	143.0	143.0	143.0	0	0	1	-59.99999999999999	59.99999999999999								
	11964	3904	5.0e-5	0.000129	3.2e-5	95.0	139.0	95.0	0	0	0	-59.99999999999999	59.99999999999999								
	1266	9556	0.0092	0.0301	0.00058	54.0	79.0	79.0	0	0	1	-59.99999999999999	59.99999999999999								
	3200	3201	0.002314	0.010410999999999998	0.002868	153.0	194.0	153.0	0	0	1	-59.99999999999999	59.99999999999999								
	7419	9090	0.031400000000000004	0.0538	0.012199999999999999	94.0	94.0	94.0	0	0	1	-59.99999999999999	59.99999999999999								
	6640	5408	0.00155	0.02231	2.0698000000000003	1992.0000000000002	1992.0000000000002	1992.0000000000002	0	0	1	-59.99999999999999	59.99999999999999								
	8664	6775	0.019839	0.14763	0.051463999999999996	0.0	0.0	0.0	0	0	1	-59.99999999999999	59.99999999999999								
	965	9547	0.004050000000000001	0.02265	0.03973	365.0	426.99999999999994	426.99999999999994	0	0	1	-59.99999999999999	59.99999999999999								
	1431	278	0.001042	0.013776	0.004675	347.0	457.0	457.0	0	0	1	-59.99999999999999	59.99999999999999								
	380	398	0.00292	0.030379999999999997	0.50581	1123.0	1123.0	1123.0	0	0	1	-59.99999999999999	59.99999999999999								
	2615	2686	0.1036	0.1206	0.00166	46.0	46.0	46.0	0	0	1	-59.99999999999999	59.99999999999999								
	1028	884	0.0172	0.0864	0.16255	288.0	337.0	337.0	0	0	1	-59.99999999999999	59.99999999999999								
	3278	3279	0.000623	0.002531	0.000678	153.0	194.0	153.0	0	0	1	-59.99999999999999	59.99999999999999								
	2864	2866	0.0323	0.1121	0.031	160.0	172.0	172.0	0	0	1	-59.99999999999999	59.99999999999999								
	21984	21964	0.0011690000000000001	0.002744	0.0007000000000000001	139.0	163.0	139.0	0	0	1	-59.99999999999999	59.99999999999999								
	7549	4909	0.0828	0.2025	0.0518	80.0	100.0	100.0	0	0	1	-59.99999999999999	59.99999999999999								
	4400	4643	0.0054	0.01319	0.00337	94.0	118.0	94.0	0	0	1	-59.99999999999999	59.99999999999999								
	2105	2279	0.0634	0.0955	0.0013	34.0	48.0	34.0	0	0	1	-59.99999999999999	59.99999999999999								
	12041	12032	0.0021579999999999998	0.010013000000000001	0.0029	159.0	191.0	159.0	0	0	1	-59.99999999999999	59.99999999999999								
	2556	2520	0.0008	0.004	0.04731	160.0	176.0	176.0	0	0	1	-59.99999999999999	59.99999999999999								
	41929	3429	1.0e-5	1.0e-5	0.0	0.0	0.0	0.0	0	0	1	-59.99999999999999	59.99999999999999								
	3267	3957	1.0e-5	1.0e-5	1.0e-5	96.0	120.0	96.0	0	0	1	-59.99999999999999	59.99999999999999								
	2398	9320	0.0285	0.1144	0.003114	101.0	101.0	101.0	0	0	1	-59.99999999999999	59.99999999999999								
	5461	5518	0.017766	0.08600400000000001	0.15058	0.0	0.0	0.0	0	0	1	-59.99999999999999	59.99999999999999								
	3861	694	0.0	0.001	0.0	0.0	0.0	0.0	0	0	1	-59.99999999999999	59.99999999999999								
	2916	2689	0.0775	0.1815	0.00267	40.0	55.00000000000001	40.0	0	0	1	-59.99999999999999	59.99999999999999								
	734	4152	1.0e-5	1.0e-5	0.0	0.0	0.0	0.0	0	0	1	-59.99999999999999	59.99999999999999								
	9117	9116	1.0e-5	1.0e-5	0.0	0.0	0.0	0.0	0	0	1	-59.99999999999999	59.99999999999999								
	701	587	0.0065710000000000005	0.027776000000000002	0.008	206.0	235.0	206.0	0	0	1	-59.99999999999999	59.99999999999999								
	2263	2292	0.0371	0.0924	0.0236	103.0	129.0	103.0	0	0	1	-59.99999999999999	59.99999999999999								
	431	426	0.000749	0.0043619999999999996	0.014199999999999999	324.0	445.0	445.0	0	0	1	-59.99999999999999	59.99999999999999								
	12009	681	0.004249	0.010974999999999999	0.0029	80.0	108.0	80.0	0	0	1	-59.99999999999999	59.99999999999999								
	6528	6526	0.1514	0.3114	0.027639999999999998	126.0	126.0	126.0	0	0	1	-59.99999999999999	59.99999999999999								
	1462	1464	0.000588	0.00335	0.000952	194.0	247.00000000000003	194.0	0	0	1	-59.99999999999999	59.99999999999999								
	1142	1876	0.013999999999999999	0.0363	0.00884	97.0	124.0	124.0	0	0	1	-59.99999999999999	59.99999999999999								
	14186	14172	0.00232	0.005988	0.001487	139.0	163.0	139.0	0	0	1	-59.99999999999999	59.99999999999999								
	4066	4037	0.071	0.183	0.045	125.0	160.0	125.0	0	0	1	-59.99999999999999	59.99999999999999								
	6143	8650	0.024304000000000003	0.10658	0.003281	0.0	0.0	0.0	0	0	1	-59.99999999999999	59.99999999999999								
	1411	279	0.002261	0.0046960000000000005	0.001134	96.0	120.0	96.0	0	0	0	-59.99999999999999	59.99999999999999								
	2356	2478	0.0222	0.0605	0.00147	64.0	64.0	64.0	0	0	1	-59.99999999999999	59.99999999999999								
	2510	2527	0.0027	0.0123	0.055810000000000005	160.0	176.0	176.0	0	0	1	-59.99999999999999	59.99999999999999								
	7629	7636	0.0	0.0001	0.0	0.0	0.0	0.0	0	0	1	-59.99999999999999	59.99999999999999								
	1659	1662	0.0008699999999999999	0.004207	0.20062000000000002	160.0	184.0	160.0	0	0	1	-59.99999999999999	59.99999999999999								
	2094	2092	0.0086	0.0217	0.0025	0.0	0.0	0.0	0	0	1	-59.99999999999999	59.99999999999999								
	9428	2463	0.0049	0.0143	0.004078	124.0	142.0	142.0	0	0	1	-59.99999999999999	59.99999999999999								
	2170	2134	0.00329	0.00809	0.00216	103.0	129.0	103.0	0	0	1	-59.99999999999999	59.99999999999999								
	4223	2331	0.02954	0.07490000000000001	0.01885	103.0	129.0	103.0	0	0	0	-59.99999999999999	59.99999999999999								
	5441	6091	0.0046489999999999995	0.033253	0.0642	351.0	413.99999999999994	413.99999999999994	0	0	1	-59.99999999999999	59.99999999999999								
	1296	1294	0.0008799999999999999	0.0049	0.00864	354.0	354.0	398.0	0	0	1	-59.99999999999999	59.99999999999999								
	725	730	0.0275	0.0724	0.018500000000000003	96.0	96.0	96.0	0	0	1	-59.99999999999999	59.99999999999999								
	8581	8582	0.0004	0.0019	0.0008	91.0	113.99999999999999	91.0	0	0	1	-59.99999999999999	59.99999999999999								
	21948	21963	0.005504	0.014217	0.0038	80.0	108.0	80.0	0	0	1	-59.99999999999999	59.99999999999999								
	321	1519	0.10779999999999999	0.2853	0.0667	125.0	160.0	125.0	0	0	1	-59.99999999999999	59.99999999999999								
	8531	8511	0.0008	0.0085	0.032	549.0	692.0	692.0	0	0	1	-59.99999999999999	59.99999999999999								
	2543	2561	0.0	0.0001	0.0	0.0	0.0	0.0	0	0	0	-59.99999999999999	59.99999999999999								
	309	4396	0.005528	0.014483999999999999	0.003428	125.0	125.0	125.0	0	0	1	-59.99999999999999	59.99999999999999								
	1099	9586	0.076815	0.27564	0.069858	139.0	171.0	171.0	0	0	1	-59.99999999999999	59.99999999999999								
	4027	7347	0.0072	0.0167	0.0037	150.0	160.0	150.0	0	0	1	-59.99999999999999	59.99999999999999								
	1006	1010	0.00014000000000000001	0.00074	0.00128	269.0	331.0	331.0	0	0	1	-59.99999999999999	59.99999999999999								
	307	392	0.0815	0.2133	0.05096	82.0	106.0	82.0	0	0	1	-59.99999999999999	59.99999999999999								
	1504	9086	0.054299999999999994	0.09072	0.0216	94.0	99.0	94.0	0	0	1	-59.99999999999999	59.99999999999999								
	2746	2789	0.0009	0.0032	0.0009	114.99999999999999	114.99999999999999	114.99999999999999	0	0	1	-59.99999999999999	59.99999999999999								
	4031	4030	0.028399999999999998	0.063	0.01564	150.0	160.0	150.0	0	0	1	-59.99999999999999	59.99999999999999								
	8009	8013	0.021248	0.075853	0.02045	0.0	0.0	0.0	0	0	1	-59.99999999999999	59.99999999999999								
	77	3383	0.00115	0.01712	2.5901	2728.0	2728.0	2728.0	0	0	1	-59.99999999999999	59.99999999999999								
	3498	3484	0.011160000000000002	0.06171	0.0	137.0	137.0	137.0	0	0	1	-59.99999999999999	59.99999999999999								
	2666	2669	0.01015	0.031139999999999998	0.00722	154.0	154.0	154.0	0	0	1	-59.99999999999999	59.99999999999999								
	9873	9877	0.007471	0.058353999999999996	0.016794	209.0	272.0	272.0	0	0	1	-59.99999999999999	59.99999999999999								
	579	1944	0.00226	0.009536	0.0028000000000000004	206.0	242.0	206.0	0	0	1	-59.99999999999999	59.99999999999999								
	9450	9444	0.00783	0.04766	0.0944	323.0	396.0	396.0	0	0	1	-59.99999999999999	59.99999999999999								
	2107	2132	0.0073	0.0255	0.0069	128.0	143.0	128.0	0	0	1	-59.99999999999999	59.99999999999999								
	1450	169	0.000844	0.0062439999999999996	0.001889	301.0	325.0	301.0	0	0	1	-59.99999999999999	59.99999999999999								
	11733	3472	0.0034699999999999996	0.008960000000000001	0.0023699999999999997	80.0	108.0	80.0	0	0	0	-59.99999999999999	59.99999999999999								
	6778	6320	0.007124	0.076395	0.005887900000000001	0.0	0.0	0.0	0	0	1	-59.99999999999999	59.99999999999999								
	1879	10177	0.0	1.0e-5	0.0	0.0	0.0	0.0	0	0	1	-59.99999999999999	59.99999999999999								
	5100	5140	0.0017000000000000001	0.0218	2.215	2165.0	2165.0	2165.0	0	0	1	-59.99999999999999	59.99999999999999								
	1035	1066	0.0001	0.001	0.0001	143.0	143.0	143.0	0	0	1	-59.99999999999999	59.99999999999999								
	564	2274	0.0058	0.031400000000000004	0.0097	188.0	192.0	188.0	0	0	1	-59.99999999999999	59.99999999999999								
	4533	4733	0.007796	0.026649	0.007043000000000001	122.0	153.0	153.0	0	0	1	-59.99999999999999	59.99999999999999								
	6591	2261	0.039220000000000005	0.1264	0.033197000000000004	136.0	162.0	136.0	0	0	1	-59.99999999999999	59.99999999999999								
	8097	8099	0.00752	0.36174999999999996	0.011279999999999998	0.0	0.0	0.0	0	0	1	-59.99999999999999	59.99999999999999								
	1455	169	0.001679	0.012419	0.003757	301.0	325.0	301.0	0	0	1	-59.99999999999999	59.99999999999999								
	4400	4401	0.0104	0.02536	0.0064800000000000005	75.0	75.0	75.0	0	0	1	-59.99999999999999	59.99999999999999								
	861	869	0.08839999999999999	0.18760000000000002	0.043246	56.99999999999999	97.0	97.0	0	0	1	-59.99999999999999	59.99999999999999								
	11941	12001	0.022109999999999998	0.057118	0.0152	80.0	108.0	80.0	0	0	1	-59.99999999999999	59.99999999999999								
	6443	6445	0.00122	0.01758	1.803	4140.0	5213.0	5213.0	0	0	1	-59.99999999999999	59.99999999999999								
	2575	2576	0.03626	0.13955	0.00994	24.0	26.0	24.0	0	0	1	-59.99999999999999	59.99999999999999								
	21721	1721	0.011930000000000001	0.01859	0.000325	43.0	43.0	43.0	0	0	1	-59.99999999999999	59.99999999999999								
	1008	2875	0.0373	0.0546	0.0008	41.0	41.0	41.0	0	0	1	-59.99999999999999	59.99999999999999								
	1198	1210	0.00473	0.0223	0.0397	210.0	298.0	298.0	0	0	1	-59.99999999999999	59.99999999999999								
	2701	9599	0.0319	0.1097	0.0304	143.0	143.0	143.0	0	0	1	-59.99999999999999	59.99999999999999								
	2839	9841	0.0255	0.0875	0.024700000000000003	143.0	143.0	143.0	0	0	1	-59.99999999999999	59.99999999999999								
	7486	1399	0.01539	0.03977	0.009811	122.0	146.0	122.0	0	0	1	-59.99999999999999	59.99999999999999								
	1421	1640	0.001418	0.005761	0.001544	153.0	194.0	153.0	0	0	0	-59.99999999999999	59.99999999999999								
	3016	2638	0.0003	0.0013	0.00026	143.0	143.0	143.0	0	0	1	-59.99999999999999	59.99999999999999								
	2104	2211	0.1802	0.2311	0.003	28.999999999999996	35.0	28.999999999999996	0	0	1	-59.99999999999999	59.99999999999999								
	564	2263	0.0178	0.0471	0.012	103.0	129.0	129.0	0	0	1	-59.99999999999999	59.99999999999999								
	3222	1696	0.001982	0.008051	0.0021579999999999998	153.0	194.0	153.0	0	0	1	-59.99999999999999	59.99999999999999								
	12013	17603	0.0	0.0001	0.0	108.0	130.0	108.0	0	0	1	-59.99999999999999	59.99999999999999								
	5633	8044	0.0	1.0e-5	0.0	0.0	0.0	0.0	0	0	1	-59.99999999999999	59.99999999999999								
	5101	5141	0.031200000000000002	0.1634	0.29760000000000003	174.0	174.0	174.0	0	0	1	-59.99999999999999	59.99999999999999								
	9876	10113	0.014256	0.072296	0.066624	0.0	0.0	0.0	0	0	1	-59.99999999999999	59.99999999999999								
	5428	5350	0.00156	0.0245	0.7163999999999997	2520.0	3187.0	3187.0	0	0	1	-59.99999999999999	59.99999999999999								
	4352	4353	0.0008500000000000001	0.011899999999999999	1.2735000000000003	2500.0	3464.0	3464.0	0	0	1	-59.99999999999999	59.99999999999999								
	6131	5245	0.0015	0.0111	0.0412	503.0	633.0	633.0	0	0	1	-59.99999999999999	59.99999999999999								
	2513	2519	0.0126	0.0446	0.01179	160.0	176.0	176.0	0	0	1	-59.99999999999999	59.99999999999999								
	9554	9234	0.0101	0.030150999999999997	0.000578	84.0	101.0	101.0	0	0	1	-59.99999999999999	59.99999999999999								
	23124	3124	4.0e-5	8.999999999999999e-5	5.0e-6	103.0	103.0	103.0	0	0	1	-59.99999999999999	59.99999999999999								
	4637	3537	0.44419	0.54485	0.0008799999999999999	17.0	17.0	17.0	0	0	1	-59.99999999999999	59.99999999999999								
	1504	4007	0.065	0.16699999999999998	0.04113000000000001	125.0	160.0	125.0	0	0	1	-59.99999999999999	59.99999999999999								
	1210	1313	0.00246	0.01222	0.02343	355.0	430.99999999999994	430.99999999999994	0	0	1	-59.99999999999999	59.99999999999999								
	3341	3338	0.009984	0.026126	0.00625	110.00000000000001	110.00000000000001	110.00000000000001	0	0	1	-59.99999999999999	59.99999999999999								
	22708	3048	0.0	0.0001	0.0	127.0	127.0	127.0	0	0	1	-59.99999999999999	59.99999999999999								
	5645	5649	0.0	1.0e-5	0.0	0.0	0.0	0.0	0	0	1	-59.99999999999999	59.99999999999999								
	2048	3198	0.0292	0.0458	0.0017000000000000001	0.0	0.0	0.0	0	0	1	-59.99999999999999	59.99999999999999								
	1082	1149	0.0178	0.037000000000000005	0.00895	72.0	72.0	72.0	0	0	1	-59.99999999999999	59.99999999999999								
	6561	6565	0.02218	0.17079999999999998	0.34025	285.0	382.0	382.0	0	0	1	-59.99999999999999	59.99999999999999								
	76	75	0.00078	0.0179	5.682000000000001	4133.0	4174.0	3684.0000000000005	0	0	1	-59.99999999999999	59.99999999999999								
	7331	377	0.021	0.053899999999999997	0.013300000000000001	125.0	125.0	125.0	0	0	1	-59.99999999999999	59.99999999999999								
	1798	7492	0.09196	0.23475000000000001	0.0037140000000000003	48.0	48.0	48.0	0	0	1	-59.99999999999999	59.99999999999999								
	41503	2241	0.0001	0.0004	0.0001	150.0	180.0	400.0	0	0	1	-59.99999999999999	59.99999999999999								
	21679	2182	9.599999999999999e-5	0.00025100000000000003	0.0001	80.0	108.0	108.0	0	0	1	-59.99999999999999	59.99999999999999								
	2249	568	0.017379	0.027558	0.0078049999999999994	103.0	129.0	103.0	0	0	1	-59.99999999999999	59.99999999999999								
	184	9640	0.00536	0.0161	0.00406	97.0	135.0	97.0	0	0	1	-59.99999999999999	59.99999999999999								
	4648	4687	1.226	1.306	0.0024	20.0	25.0	20.0	0	0	1	-59.99999999999999	59.99999999999999								
	2572	2584	0.18792999999999999	0.33204	0.00047	27.0	30.0	27.0	0	0	1	-59.99999999999999	59.99999999999999								
	1765	175	0.06305	0.1582	0.04153	88.0	114.99999999999999	114.99999999999999	0	0	0	-59.99999999999999	59.99999999999999								
	1760	1765	0.06305	0.1582	0.04153	88.0	114.99999999999999	113.99999999999999	0	0	1	-59.99999999999999	59.99999999999999								
	3103	2130	0.01756	0.042039999999999994	0.00999	144.0	168.0	144.0	0	0	1	-59.99999999999999	59.99999999999999								
	1266	9661	0.0008939999999999999	0.000394	0.000615	36.0	36.0	36.0	0	0	1	-59.99999999999999	59.99999999999999								
	44449	4566	1.0e-5	1.0e-5	0.0	0.0	0.0	0.0	0	0	0	-59.99999999999999	59.99999999999999								
	621	22628	0.044084000000000005	0.10351	0.0275	139.0	163.0	139.0	0	0	1	-59.99999999999999	59.99999999999999								
	823	2443	0.0684	0.19820000000000002	0.054378	135.0	151.0	151.0	0	0	1	-59.99999999999999	59.99999999999999								
	1736	3394	0.00751	0.01936	0.0048	180.0	191.0	180.0	0	0	1	-59.99999999999999	59.99999999999999								
	1729	1777	0.0044	0.00909	0.00222	105.0	105.0	105.0	0	0	1	-59.99999999999999	59.99999999999999								
	3854	22015	9.7e-5	0.000254	0.0001	95.0	139.0	139.0	0	0	0	-59.99999999999999	59.99999999999999								
	1142	1121	0.021766	0.05787	0.013458000000000001	97.0	124.0	124.0	0	0	1	-59.99999999999999	59.99999999999999								
	3204	3958	3.1e-5	0.00023300000000000003	7.1e-5	239.0	301.0	239.0	0	0	1	-59.99999999999999	59.99999999999999								
	9079	376	0.00791	0.02031	0.00508	125.0	125.0	125.0	0	0	1	-59.99999999999999	59.99999999999999								
	2671	3033	0.0286	0.1245	0.025849999999999998	143.0	143.0	143.0	0	0	1	-59.99999999999999	59.99999999999999								
	21958	21992	0.005697	0.014716	0.0039000000000000003	80.0	108.0	80.0	0	0	1	-59.99999999999999	59.99999999999999								
	175	174	0.0643	0.27140000000000003	0.0738	125.0	157.0	157.0	0	0	1	-59.99999999999999	59.99999999999999								
...
];

%% dcline data
%    f_bus    t_bus    status    Pf    Pt    Qf    Qt    Vf    Vt    Pmin    Pmax    QminF    QmaxF    QminT    QmaxT    loss0    loss1
mpc.dcline = [
	85	86	1	1125.0	1088.19140625	-0.0	-0.0	1.033	1.011	-1088.19140625	1125.0	-1120.7190353532137	0.0	-1040.6426171949786	0.0	0.0	0.0						
	85	86	1	1125.0	1088.19140625	-0.0	-0.0	1.033	1.011	-1088.19140625	1125.0	-1120.7190353532137	0.0	-1040.6426171949786	0.0	0.0	0.0						
	85	86	1	1125.0	1088.19140625	-0.0	-0.0	1.033	1.011	-1088.19140625	1125.0	-1120.7190353532137	0.0	-1040.6426171949786	0.0	0.0	0.0						
	85	86	1	1125.0	1088.19140625	-0.0	-0.0	1.033	1.011	-1088.19140625	1125.0	-1120.7190353532137	0.0	-1040.6426171949786	0.0	0.0	0.0						
	7055	7057	1	1575.0	1457.1703125	-0.0	-0.0	1.031	1.05	-1457.1703125	1575.0	-1569.0066494944992	0.0	-1393.4989000918924	0.0	0.0	0.0						
	7055	7057	1	1575.0	1457.1703125	-0.0	-0.0	1.031	1.05	-1457.1703125	1575.0	-1569.0066494944992	0.0	-1393.4989000918924	0.0	0.0	0.0						
	7055	7057	1	1575.0	1465.78359375	-0.0	-0.0	1.031	1.05	-1465.78359375	1575.0	-1569.0066494944992	0.0	-1390.0372553662787	0.0	0.0	0.0						
	7055	7057	1	1575.0	1465.78359375	-0.0	-0.0	1.031	1.05	-1465.78359375	1575.0	-1569.0066494944992	0.0	-1390.0372553662787	0.0	0.0	0.0						
	7059	7054	1	200.0	197.6841219541379	-0.0	-0.0	1.031	1.021	-197.6841219541379	200.0	-197.25712030744629	0.0	-183.28952618008847	0.0	0.0	0.0						
	7059	7054	1	200.0	197.6841219541379	-0.0	-0.0	1.031	1.021	-197.6841219541379	200.0	-197.25712030744629	0.0	-183.28952618008847	0.0	0.0	0.0						
	8100	3010	1	2000.0	1913.1250000000002	-0.0	-0.0	1.03	1.046	-1913.1250000000002	2000.0	-1951.069087891713	0.0	-1819.4899977371656	0.0	0.0	0.0						
	8100	3010	1	2000.0	1913.1250000000002	-0.0	-0.0	1.03	1.046	-1913.1250000000002	2000.0	-1951.069087891713	0.0	-1819.4899977371656	0.0	0.0	0.0						
	8100	9605	1	2000.0	1894.9375	-0.0	-0.0	1.03	1.041	-1894.9375	2000.0	-1992.389396183491	0.0	-1812.1377435027046	0.0	0.0	0.0						
	8100	9605	1	2000.0	1894.9375	-0.0	-0.0	1.03	1.041	-1894.9375	2000.0	-1992.389396183491	0.0	-1812.1377435027046	0.0	0.0	0.0						
];

%%-----  OPF Data  -----%%
%% cost data
%    1    startup    shutdown    n    x1    y1    ...    xn    yn
%    2    startup    shutdown    n    c(n-1)    ...    c0
mpc.gencost = [
	2	0.0	0.0	2	1.0	0.0
	2	0.0	0.0	2	1.0	0.0
	2	0.0	0.0	2	1.0	0.0
	2	0.0	0.0	2	1.0	0.0
	2	0.0	0.0	2	1.0	0.0
	2	0.0	0.0	2	1.0	0.0
	2	0.0	0.0	2	1.0	0.0
	2	0.0	0.0	2	1.0	0.0
	2	0.0	0.0	2	1.0	0.0
	2	0.0	0.0	2	1.0	0.0
	2	0.0	0.0	2	1.0	0.0
	2	0.0	0.0	2	1.0	0.0
	2	0.0	0.0	2	1.0	0.0
	2	0.0	0.0	2	1.0	0.0
	2	0.0	0.0	2	1.0	0.0
	2	0.0	0.0	2	1.0	0.0
	2	0.0	0.0	2	1.0	0.0
	2	0.0	0.0	2	1.0	0.0
	2	0.0	0.0	2	1.0	0.0
	2	0.0	0.0	2	1.0	0.0
	2	0.0	0.0	2	1.0	0.0
	2	0.0	0.0	2	1.0	0.0
	2	0.0	0.0	2	1.0	0.0
	2	0.0	0.0	2	1.0	0.0
	2	0.0	0.0	2	1.0	0.0
	2	0.0	0.0	2	1.0	0.0
	2	0.0	0.0	2	1.0	0.0
	2	0.0	0.0	2	1.0	0.0
	2	0.0	0.0	2	1.0	0.0
	2	0.0	0.0	2	1.0	0.0
	2	0.0	0.0	2	1.0	0.0
	2	0.0	0.0	2	1.0	0.0
	2	0.0	0.0	2	1.0	0.0
	2	0.0	0.0	2	1.0	0.0
	2	0.0	0.0	2	1.0	0.0
	2	0.0	0.0	2	1.0	0.0
	2	0.0	0.0	2	1.0	0.0
	2	0.0	0.0	2	1.0	0.0
	2	0.0	0.0	2	1.0	0.0
	2	0.0	0.0	2	1.0	0.0
	2	0.0	0.0	2	1.0	0.0
	2	0.0	0.0	2	1.0	0.0
	2	0.0	0.0	2	1.0	0.0
	2	0.0	0.0	2	1.0	0.0
	2	0.0	0.0	2	1.0	0.0
	2	0.0	0.0	2	1.0	0.0
	2	0.0	0.0	2	1.0	0.0
	2	0.0	0.0	2	1.0	0.0
	2	0.0	0.0	2	1.0	0.0
	2	0.0	0.0	2	1.0	0.0
	2	0.0	0.0	2	1.0	0.0
	2	0.0	0.0	2	1.0	0.0
	2	0.0	0.0	2	1.0	0.0
	2	0.0	0.0	2	1.0	0.0
	2	0.0	0.0	2	1.0	0.0
	2	0.0	0.0	2	1.0	0.0
	2	0.0	0.0	2	1.0	0.0
	2	0.0	0.0	2	1.0	0.0
	2	0.0	0.0	2	1.0	0.0
	2	0.0	0.0	2	1.0	0.0
	2	0.0	0.0	2	1.0	0.0
	2	0.0	0.0	2	1.0	0.0
	2	0.0	0.0	2	1.0	0.0
	2	0.0	0.0	2	1.0	0.0
	2	0.0	0.0	2	1.0	0.0
	2	0.0	0.0	2	1.0	0.0
	2	0.0	0.0	2	1.0	0.0
	2	0.0	0.0	2	1.0	0.0
	2	0.0	0.0	2	1.0	0.0
	2	0.0	0.0	2	1.0	0.0
	2	0.0	0.0	2	1.0	0.0
	2	0.0	0.0	2	1.0	0.0
	2	0.0	0.0	2	1.0	0.0
	2	0.0	0.0	2	1.0	0.0
	2	0.0	0.0	2	1.0	0.0
	2	0.0	0.0	2	1.0	0.0
	2	0.0	0.0	2	1.0	0.0
	2	0.0	0.0	2	1.0	0.0
	2	0.0	0.0	2	1.0	0.0
	2	0.0	0.0	2	1.0	0.0
	2	0.0	0.0	2	1.0	0.0
	2	0.0	0.0	2	1.0	0.0
	2	0.0	0.0	2	1.0	0.0
	2	0.0	0.0	2	1.0	0.0
	2	0.0	0.0	2	1.0	0.0
	2	0.0	0.0	2	1.0	0.0
	2	0.0	0.0	2	1.0	0.0
	2	0.0	0.0	2	1.0	0.0
	2	0.0	0.0	2	1.0	0.0
	2	0.0	0.0	2	1.0	0.0
	2	0.0	0.0	2	1.0	0.0
	2	0.0	0.0	2	1.0	0.0
	2	0.0	0.0	2	1.0	0.0
	2	0.0	0.0	2	1.0	0.0
	2	0.0	0.0	2	1.0	0.0
	2	0.0	0.0	2	1.0	0.0
	2	0.0	0.0	2	1.0	0.0
	2	0.0	0.0	2	1.0	0.0
	2	0.0	0.0	2	1.0	0.0
	2	0.0	0.0	2	1.0	0.0
	2	0.0	0.0	2	1.0	0.0
	2	0.0	0.0	2	1.0	0.0
	2	0.0	0.0	2	1.0	0.0
	2	0.0	0.0	2	1.0	0.0
	2	0.0	0.0	2	1.0	0.0
	2	0.0	0.0	2	1.0	0.0
	2	0.0	0.0	2	1.0	0.0
	2	0.0	0.0	2	1.0	0.0
	2	0.0	0.0	2	1.0	0.0
	2	0.0	0.0	2	1.0	0.0
	2	0.0	0.0	2	1.0	0.0
	2	0.0	0.0	2	1.0	0.0
	2	0.0	0.0	2	1.0	0.0
	2	0.0	0.0	2	1.0	0.0
	2	0.0	0.0	2	1.0	0.0
	2	0.0	0.0	2	1.0	0.0
	2	0.0	0.0	2	1.0	0.0
	2	0.0	0.0	2	1.0	0.0
	2	0.0	0.0	2	1.0	0.0
	2	0.0	0.0	2	1.0	0.0
	2	0.0	0.0	2	1.0	0.0
	2	0.0	0.0	2	1.0	0.0
	2	0.0	0.0	2	1.0	0.0
	2	0.0	0.0	2	1.0	0.0
	2	0.0	0.0	2	1.0	0.0
	2	0.0	0.0	2	1.0	0.0
	2	0.0	0.0	2	1.0	0.0
	2	0.0	0.0	2	1.0	0.0
	2	0.0	0.0	2	1.0	0.0
	2	0.0	0.0	2	1.0	0.0
	2	0.0	0.0	2	1.0	0.0
	2	0.0	0.0	2	1.0	0.0
	2	0.0	0.0	2	1.0	0.0
	2	0.0	0.0	2	1.0	0.0
	2	0.0	0.0	2	1.0	0.0
	2	0.0	0.0	2	1.0	0.0
	2	0.0	0.0	2	1.0	0.0
	2	0.0	0.0	2	1.0	0.0
	2	0.0	0.0	2	1.0	0.0
	2	0.0	0.0	2	1.0	0.0
	2	0.0	0.0	2	1.0	0.0
	2	0.0	0.0	2	1.0	0.0
	2	0.0	0.0	2	1.0	0.0
	2	0.0	0.0	2	1.0	0.0
	2	0.0	0.0	2	1.0	0.0
	2	0.0	0.0	2	1.0	0.0
	2	0.0	0.0	2	1.0	0.0
	2	0.0	0.0	2	1.0	0.0
	2	0.0	0.0	2	1.0	0.0
	2	0.0	0.0	2	1.0	0.0
	2	0.0	0.0	2	1.0	0.0
	2	0.0	0.0	2	1.0	0.0
	2	0.0	0.0	2	1.0	0.0
	2	0.0	0.0	2	1.0	0.0
	2	0.0	0.0	2	1.0	0.0
	2	0.0	0.0	2	1.0	0.0
	2	0.0	0.0	2	1.0	0.0
	2	0.0	0.0	2	1.0	0.0
	2	0.0	0.0	2	1.0	0.0
	2	0.0	0.0	2	1.0	0.0
	2	0.0	0.0	2	1.0	0.0
	2	0.0	0.0	2	1.0	0.0
	2	0.0	0.0	2	1.0	0.0
	2	0.0	0.0	2	1.0	0.0
	2	0.0	0.0	2	1.0	0.0
	2	0.0	0.0	2	1.0	0.0
	2	0.0	0.0	2	1.0	0.0
	2	0.0	0.0	2	1.0	0.0
	2	0.0	0.0	2	1.0	0.0
	2	0.0	0.0	2	1.0	0.0
	2	0.0	0.0	2	1.0	0.0
	2	0.0	0.0	2	1.0	0.0
	2	0.0	0.0	2	1.0	0.0
	2	0.0	0.0	2	1.0	0.0
	2	0.0	0.0	2	1.0	0.0
	2	0.0	0.0	2	1.0	0.0
	2	0.0	0.0	2	1.0	0.0
	2	0.0	0.0	2	1.0	0.0
	2	0.0	0.0	2	1.0	0.0
	2	0.0	0.0	2	1.0	0.0
	2	0.0	0.0	2	1.0	0.0
	2	0.0	0.0	2	1.0	0.0
	2	0.0	0.0	2	1.0	0.0
	2	0.0	0.0	2	1.0	0.0
	2	0.0	0.0	2	1.0	0.0
	2	0.0	0.0	2	1.0	0.0
	2	0.0	0.0	2	1.0	0.0
	2	0.0	0.0	2	1.0	0.0
	2	0.0	0.0	2	1.0	0.0
	2	0.0	0.0	2	1.0	0.0
	2	0.0	0.0	2	1.0	0.0
	2	0.0	0.0	2	1.0	0.0
	2	0.0	0.0	2	1.0	0.0
	2	0.0	0.0	2	1.0	0.0
	2	0.0	0.0	2	1.0	0.0
	2	0.0	0.0	2	1.0	0.0
	2	0.0	0.0	2	1.0	0.0
	2	0.0	0.0	2	1.0	0.0
	2	0.0	0.0	2	1.0	0.0
	2	0.0	0.0	2	1.0	0.0
...
];

%%-----  OPF Data  -----%%
%% cost data
%    1    startup    shutdown    n    x1    y1    ...    xn    yn
%    2    startup    shutdown    n    c(n-1)    ...    c0
mpc.dclinecost = [
	2	0.0	0.0	2	0.0	0.0
	2	0.0	0.0	2	0.0	0.0
	2	0.0	0.0	2	0.0	0.0
	2	0.0	0.0	2	0.0	0.0
	2	0.0	0.0	2	0.0	0.0
	2	0.0	0.0	2	0.0	0.0
	2	0.0	0.0	2	0.0	0.0
	2	0.0	0.0	2	0.0	0.0
	2	0.0	0.0	2	0.0	0.0
	2	0.0	0.0	2	0.0	0.0
	2	0.0	0.0	2	0.0	0.0
	2	0.0	0.0	2	0.0	0.0
	2	0.0	0.0	2	0.0	0.0
	2	0.0	0.0	2	0.0	0.0
];

%% bus names
mpc.bus_name = {
	'ANGRA1UNE000'
	'ANGRA2UNE001'
	'LCBARRUHE004'
	'LCBARRSIN000'
	'FUNIL-UHE002'
	'FURNASUHE005'
	'FURNASSIN000'
	'ITUMBIUHE004'
	'ITUMBISIN000'
	'MARIMBUHE005'
	'MANSO-UHE002'
	'M.MORAUHE004'
	'M.MORBUHE003'
	'PCOLOMUHE003'
	'SCRU19UTE000'
	'SCRU13UTE000'
	'SCRU16UTE000'
	'CORUMBUHE002'
	'S.MESAUHE003'
	'S.MESASIN000'
	'GRAJA2SIN001'
	'VITOR2SIN001'
	'BAND-1CER345'
	'BAND-2CER345'
	'GRAJA1SIN001'
	'CAMPOSCER345'
	'VITOR1SIN001'
	'IBIUNASIN004'
	'TPRETOSIN001'
	'P.ACU--RJ345'
	'GNA1G-UTE000'
	'GNA1V-UTE000'
	'BALTO-CER230'
	'IVAIP3-PR069'
	'IVAIP2-PR069'
	'IVAIP2-PR000'
	'IVAIP3-PR000'
	'F.IGUA-PR765'
	'FZ-500-PR500'
	'IV-FZ1CAP765'
	'IV-FZ2CAP765'
	'IV-FZ3CAP765'
	'IVAIPO-PR765'
	'IVAIPA-PR525'
	'IVAIP1-PR069'
	'IVAIP1-PR000'
	'IV-IT1CAP765'
	'IV-IT2CAP765'
	'IV-IT3CAP765'
	'ITABER-SP765'
	'IT-TP1CAP765'
	'IT-TP2CAP765'
	'IT-TP3CAP765'
	'TPRETO-SP765'
	'TPRETO-SP500'
	'TPRETO-SP345'
	'TPRETO-SP069'
	'TPRET3-SP000'
	'TPRET4-SP000'
	'TPRET2-SP345'
	'RESEN2-RJ138'
	'FOZ500-PR500'
	'IBIUNA-SP345'
	'RESEND-RJ500'
	'VIANA--ES345'
	'VIANT1-ES013'
	'SB-SM1CAP500'
	'SB-SM2CAP500'
	'SB-SM3CAP500'
	'VIANT2-ES013'
	'VIANT3-ES013'
	'AS-AR1-SP500'
	'MARIMB-MG500'
	'ARARAQ-SP500'
	'P.CALD-MG500'
	'CAMPIN-SP500'
	'C.PAUL-SP500'
	'ANGRA--RJ500'
	'ADRIAN-RJ500'
	'GRAJAU-RJ500'
	'S.JOSE-RJ500'
	'BYPSAD-RJ500'
	'GR1T52-RJ000'
	'BA-IB1-PR500'
	'BA-IB2-PR500'
	'BA-IT1-PR500'
	'BA-IT1CAP500'
	'IMBTAP-RJ138'
	'BANDT4-GO000'
	'BANDT4-GO013'
	'P.CALD-MG345'
	'PCAT51-MG000'
	'IBIUNA-SP500'
	'CAMPIN-SP345'
	'CAMP51-SP000'
	'IB-BA1CAP500'
	'GUARUL-SP345'
	'MO-RL1-SP345'
	'MO-RL2-SP345'
	'MOGI---SP345'
	'IB-BA2CAP500'
	'M.MORA-MG345'
	'ADRT1A-RJ000'
	'LCBARR-SP345'
	'JACT1A-RJ000'
	'FURNAS-MG345'
	'JACT2A-RJ000'
	'ITUTIN-MG345'
	'ADRT51-RJ000'
	'ADRIAN-RJ345'
	'ADRT53-RJ000'
	'ADRT55-RJ000'
	'ADRT2B-RJ000'
	'JACARE-RJ345'
	'ADRT1B-RJ000'
	'ADRT2A-RJ000'
	'CAMPOS-RJ345'
	'CAMPO1-RJ000'
	'VITORI-ES345'
	'VITAT1-ES000'
	'VITAT2-ES000'
	'VITAT3-ES000'
	'VITAT2-ES013'
	'VITAT3-ES013'
	'VITAT4-ES013'
	'VITAT4-ES000'
	'JA-R30-RJ013'
	'JB-R60-RJ013'
	'MO-FCE-SP230'
	'CAMAT1-SP000'
	'CAMPI1-SP013'
	'PCAT02-MG000'
	'P.CAL2-MG013'
	'JACT1B-RJ000'
	'JA-R60-RJ013'
	'SJOSE2-RJ138'
	'P.CALD-MG138'
	'CAMPI1-SP138'
	'IMBARE-RJ138'
	'ADRIAN-RJ138'
	'R.LEAO-RJ138'
	'CAMPOS-RJ138'
	'CAMP54-SP000'
	'VITOR1-ES138'
	'GRAJAU-RJ138'
	'GR2T54-RJ000'
	'JACAR2-RJ138'
	'ANGDEF-RJ138'
	'FUNIL--RJ138'
	'C.PAUL-SP138'
	'S.CRUZ-RJ138'
	'ANGRA--RJ138'
	'CAMP54-SP013'
	'M.MORA-MG138'
	'BGERT1-DF000'
	'P.COL--MG138'
	'CAMPO1-RJ013'
	'ADRT55-RJ013'
	'ADRT53-RJ013'
	'CAMP51-SP013'
	'ADRT51-RJ013'
	'PCALAT-MG013'
	'VITAT1-ES013'
	'UCAMP1-RJ000'
	'RSIL-1UTE001'
	'UCAMP2-RJ000'
	'RSIL-2UTE001'
	'ADRT1B-RJ013'
	'ADRT2A-RJ013'
	'ADRT2B-RJ013'
	'BGERT1-DF013'
	'ADRT1A-RJ013'
	'ITUMBI-MG500'
	'CAMPO2-RJ000'
	'CAMPO2-RJ013'
	'MARIMB-MG345'
	'MARIMB-MG000'
	'P.COL--MG345'
	'ITUMBI-MG345'
	'BANDEI-GO345'
	'B.SUL--DF345'
	'CORUMB-GO345'
	'B.GERA-DF034'
	'BSULT6-DF000'
	'BANDT1-GO000'
	'BANDT2-GO000'
	'ITUMBI-MG230'
	'BANDEI-GO230'
	'B.GERA-DF230'
	'B.SUL--DF230'
	'B.ALTO-GO230'
	'S.MESA-GO230'
	'R.VERD-GO230'
	'BSULT6-DF013'
	'SAMAMB-DF500'
	'SAMAMB-DF345'
	'S.MESA-GO500'
	'B.SUL--DF138'
	'SAMAMB-DF138'
	'R.VERD-GO138'
	'S.MESA-GO138'
	'RVERT1-GO000'
	'RVERT1-GO013'
	'BANDT1-GO013'
	'BANDT2-GO013'
	'BSU-T7-DF000'
	'BSULT7-DF013'
	'MARIMB-MG013'
	'C.BRAV-GO138'
	'RBOIS-TAP138'
	'RCLARO-GO138'
	'NPECANUHE001'
	'N.PECA-RJ138'
	'N.PECA-RJ230'
	'FONTESUHE001'
	'FONTES-RJ138'
	'PPASSOUHE001'
	'PPASSO-RJ138'
	'I.POMBUHE003'
	'I.POMB-RJ138'
	'SCECIL-RJ013'
	'S.CEC-PCH138'
	'VIGARI-RJ013'
	'VIGARI-RJ138'
	'TAQUAR-RJ138'
	'VULCAN-RJ138'
	'S.CLAR-RJ138'
	'CPP----RJ138'
	'CFRTAP-RJ138'
	'CSN---UTE002'
	'CORDOV-RJ138'
	'MERITI-RJ138'
	'TRIAGE-RJ138'
	'SAUDAD-RJ138'
	'V.RED-PCH138'
	'CASCA2-RJ138'
	'BRISAM-RJ138'
...